<?xml version="1.0" encoding="UTF-8"?>

<!-- generated on 2026-06-21T12:52:07.770376+05:30 by Eclipse SUMO netconvert 1.27.0
<netconvertConfiguration xmlns:xsi="http://www.w3.org/2001/XMLSchema-instance" xsi:noNamespaceSchemaLocation="http://sumo.dlr.de/xsd/netconvertConfiguration.xsd">

    <input>
        <node-files value="roundabout.nod.xml"/>
        <edge-files value="roundabout.edg.xml"/>
    </input>

    <output>
        <output-file value="roundabout.net.xml"/>
    </output>

    <processing>
        <roundabouts.guess value="true"/>
    </processing>

    <building_defaults>
        <default.lanewidth value="4.0"/>
    </building_defaults>

    <report>
        <no-warnings value="false"/>
    </report>

</netconvertConfiguration>
-->

<net version="1.20" junctionCornerDetail="5" limitTurnSpeed="5.50" xmlns:xsi="http://www.w3.org/2001/XMLSchema-instance" xsi:noNamespaceSchemaLocation="http://sumo.dlr.de/xsd/net_file.xsd">

    <location netOffset="200.00,200.00" convBoundary="0.00,0.00,400.00,400.00" origBoundary="-200.00,-200.00,200.00,200.00" projParameter="!"/>

    <edge id=":E_0" function="internal">
        <lane id=":E_0_0" index="0" speed="6.94" length="7.11" width="4.00" shape="235.34,202.00 233.49,202.23 231.95,202.93 230.72,204.08 229.80,205.70"/>
    </edge>
    <edge id=":E_1" function="internal">
        <lane id=":E_1_0" index="0" speed="6.94" length="7.11" width="4.00" shape="229.80,194.30 230.72,195.92 231.95,197.07 233.49,197.77 235.34,198.00"/>
    </edge>
    <edge id=":E_2" function="internal">
        <lane id=":E_2_0" index="0" speed="8.33" length="11.71" width="4.00" shape="229.80,194.30 230.69,197.15 230.98,200.00 230.69,202.85 229.80,205.70"/>
    </edge>
    <edge id=":E_far_0" function="internal">
        <lane id=":E_far_0_0" index="0" speed="4.08" length="5.84" width="4.00" shape="400.00,198.00 401.50,199.00 402.00,200.00 401.50,201.00 400.00,202.00"/>
    </edge>
    <edge id=":N_0" function="internal">
        <lane id=":N_0_0" index="0" speed="6.94" length="7.11" width="4.00" shape="198.00,235.34 197.77,233.49 197.07,231.95 195.92,230.72 194.30,229.80"/>
    </edge>
    <edge id=":N_1" function="internal">
        <lane id=":N_1_0" index="0" speed="6.94" length="7.11" width="4.00" shape="205.70,229.80 204.08,230.72 202.93,231.95 202.23,233.49 202.00,235.34"/>
    </edge>
    <edge id=":N_2" function="internal">
        <lane id=":N_2_0" index="0" speed="8.33" length="11.71" width="4.00" shape="205.70,229.80 202.85,230.69 200.00,230.98 197.15,230.69 194.30,229.80"/>
    </edge>
    <edge id=":N_far_0" function="internal">
        <lane id=":N_far_0_0" index="0" speed="4.08" length="5.84" width="4.00" shape="202.00,400.00 201.00,401.50 200.00,402.00 199.00,401.50 198.00,400.00"/>
    </edge>
    <edge id=":S_0" function="internal">
        <lane id=":S_0_0" index="0" speed="6.94" length="7.11" width="4.00" shape="202.00,164.66 202.23,166.51 202.93,168.05 204.08,169.28 205.70,170.20"/>
    </edge>
    <edge id=":S_1" function="internal">
        <lane id=":S_1_0" index="0" speed="6.94" length="7.11" width="4.00" shape="194.30,170.20 195.92,169.28 197.07,168.05 197.77,166.51 198.00,164.66"/>
    </edge>
    <edge id=":S_2" function="internal">
        <lane id=":S_2_0" index="0" speed="8.33" length="11.71" width="4.00" shape="194.30,170.20 197.15,169.31 200.00,169.02 202.85,169.31 205.70,170.20"/>
    </edge>
    <edge id=":S_far_0" function="internal">
        <lane id=":S_far_0_0" index="0" speed="4.08" length="5.84" width="4.00" shape="198.00,0.00 199.00,-1.50 200.00,-2.00 201.00,-1.50 202.00,0.00"/>
    </edge>
    <edge id=":W_0" function="internal">
        <lane id=":W_0_0" index="0" speed="6.94" length="7.11" width="4.00" shape="170.20,205.70 169.28,204.08 168.05,202.93 166.51,202.23 164.66,202.00"/>
    </edge>
    <edge id=":W_1" function="internal">
        <lane id=":W_1_0" index="0" speed="8.33" length="11.71" width="4.00" shape="170.20,205.70 169.31,202.85 169.02,200.00 169.31,197.15 170.20,194.30"/>
    </edge>
    <edge id=":W_2" function="internal">
        <lane id=":W_2_0" index="0" speed="6.94" length="7.11" width="4.00" shape="164.66,198.00 166.51,197.77 168.05,197.07 169.28,195.92 170.20,194.30"/>
    </edge>
    <edge id=":W_far_0" function="internal">
        <lane id=":W_far_0_0" index="0" speed="4.08" length="5.84" width="4.00" shape="0.00,202.00 -1.50,201.00 -2.00,200.00 -1.50,199.00 0.00,198.00"/>
    </edge>

    <edge id="circ_E_N" from="E" to="N" priority="-1" shape="230.00,200.00 221.21,221.21 200.00,230.00">
        <lane id="circ_E_N_0" index="0" speed="8.33" length="36.89" width="4.00" shape="229.80,205.70 222.74,222.74 205.70,229.80"/>
    </edge>
    <edge id="circ_N_W" from="N" to="W" priority="-1" shape="200.00,230.00 178.79,221.21 170.00,200.00">
        <lane id="circ_N_W_0" index="0" speed="8.33" length="36.89" width="4.00" shape="194.30,229.80 177.26,222.74 170.20,205.70"/>
    </edge>
    <edge id="circ_S_E" from="S" to="E" priority="-1" shape="200.00,170.00 221.21,178.79 230.00,200.00">
        <lane id="circ_S_E_0" index="0" speed="8.33" length="36.89" width="4.00" shape="205.70,170.20 222.74,177.26 229.80,194.30"/>
    </edge>
    <edge id="circ_W_S" from="W" to="S" priority="-1" shape="170.00,200.00 178.79,178.79 200.00,170.00">
        <lane id="circ_W_S_0" index="0" speed="8.33" length="36.89" width="4.00" shape="170.20,194.30 177.26,177.26 194.30,170.20"/>
    </edge>
    <edge id="entry_E" from="E_far" to="E" priority="-1">
        <lane id="entry_E_0" index="0" speed="13.89" length="164.66" width="4.00" shape="400.00,202.00 235.34,202.00"/>
    </edge>
    <edge id="entry_N" from="N_far" to="N" priority="-1">
        <lane id="entry_N_0" index="0" speed="13.89" length="164.66" width="4.00" shape="198.00,400.00 198.00,235.34"/>
    </edge>
    <edge id="entry_S" from="S_far" to="S" priority="-1">
        <lane id="entry_S_0" index="0" speed="13.89" length="164.66" width="4.00" shape="202.00,0.00 202.00,164.66"/>
    </edge>
    <edge id="entry_W" from="W_far" to="W" priority="-1">
        <lane id="entry_W_0" index="0" speed="13.89" length="164.66" width="4.00" shape="0.00,198.00 164.66,198.00"/>
    </edge>
    <edge id="exit_E" from="E" to="E_far" priority="-1">
        <lane id="exit_E_0" index="0" speed="13.89" length="164.66" width="4.00" shape="235.34,198.00 400.00,198.00"/>
    </edge>
    <edge id="exit_N" from="N" to="N_far" priority="-1">
        <lane id="exit_N_0" index="0" speed="13.89" length="164.66" width="4.00" shape="202.00,235.34 202.00,400.00"/>
    </edge>
    <edge id="exit_S" from="S" to="S_far" priority="-1">
        <lane id="exit_S_0" index="0" speed="13.89" length="164.66" width="4.00" shape="198.00,164.66 198.00,0.00"/>
    </edge>
    <edge id="exit_W" from="W" to="W_far" priority="-1">
        <lane id="exit_W_0" index="0" speed="13.89" length="164.66" width="4.00" shape="164.66,202.00 0.00,202.00"/>
    </edge>

    <junction id="E" type="priority" x="230.00" y="200.00" incLanes="entry_E_0 circ_S_E_0" intLanes=":E_0_0 :E_1_0 :E_2_0" shape="235.34,204.00 235.34,196.00 233.75,195.73 233.08,195.38 232.51,194.90 232.04,194.29 231.65,193.53 227.95,195.06 228.86,198.35 228.98,200.00 228.86,201.65 228.52,203.29 227.95,204.94 231.65,206.47 232.51,205.10 233.08,204.62 233.75,204.27 234.50,204.07">
        <request index="0" response="100" foes="100" cont="0"/>
        <request index="1" response="000" foes="000" cont="0"/>
        <request index="2" response="000" foes="001" cont="0"/>
    </junction>
    <junction id="E_far" type="priority" x="400.00" y="200.00" incLanes="exit_E_0" intLanes=":E_far_0_0" shape="400.00,200.00 400.00,196.00 400.00,200.00">
        <request index="0" response="0" foes="0" cont="0"/>
    </junction>
    <junction id="N" type="priority" x="200.00" y="230.00" incLanes="entry_N_0 circ_E_N_0" intLanes=":N_0_0 :N_1_0 :N_2_0" shape="196.00,235.34 204.00,235.34 204.27,233.75 204.62,233.08 205.10,232.51 205.71,232.04 206.47,231.65 204.94,227.95 201.65,228.86 200.00,228.98 198.35,228.86 196.71,228.52 195.06,227.95 193.53,231.65 194.90,232.51 195.38,233.08 195.73,233.75 195.93,234.50">
        <request index="0" response="100" foes="100" cont="0"/>
        <request index="1" response="000" foes="000" cont="0"/>
        <request index="2" response="000" foes="001" cont="0"/>
    </junction>
    <junction id="N_far" type="priority" x="200.00" y="400.00" incLanes="exit_N_0" intLanes=":N_far_0_0" shape="200.00,400.00 204.00,400.00 200.00,400.00">
        <request index="0" response="0" foes="0" cont="0"/>
    </junction>
    <junction id="S" type="priority" x="200.00" y="170.00" incLanes="entry_S_0 circ_W_S_0" intLanes=":S_0_0 :S_1_0 :S_2_0" shape="204.94,172.05 206.47,168.35 205.10,167.49 204.62,166.92 204.27,166.25 204.07,165.50 204.00,164.66 196.00,164.66 195.73,166.25 195.38,166.92 194.90,167.49 194.29,167.96 193.53,168.35 195.06,172.05 198.35,171.14 200.00,171.02 201.65,171.14 203.29,171.48">
        <request index="0" response="100" foes="100" cont="0"/>
        <request index="1" response="000" foes="000" cont="0"/>
        <request index="2" response="000" foes="001" cont="0"/>
    </junction>
    <junction id="S_far" type="priority" x="200.00" y="0.00" incLanes="exit_S_0" intLanes=":S_far_0_0" shape="200.00,0.00 196.00,0.00 200.00,0.00">
        <request index="0" response="0" foes="0" cont="0"/>
    </junction>
    <junction id="W" type="priority" x="170.00" y="200.00" incLanes="circ_N_W_0 entry_W_0" intLanes=":W_0_0 :W_1_0 :W_2_0" shape="168.35,206.47 172.05,204.94 171.14,201.65 171.02,200.00 171.14,198.35 171.48,196.71 172.05,195.06 168.35,193.53 167.49,194.90 166.92,195.38 166.25,195.73 165.50,195.93 164.66,196.00 164.66,204.00 166.25,204.27 166.92,204.62 167.49,205.10 167.96,205.71">
        <request index="0" response="000" foes="000" cont="0"/>
        <request index="1" response="000" foes="100" cont="0"/>
        <request index="2" response="010" foes="010" cont="0"/>
    </junction>
    <junction id="W_far" type="priority" x="0.00" y="200.00" incLanes="exit_W_0" intLanes=":W_far_0_0" shape="0.00,200.00 0.00,204.00 0.00,200.00">
        <request index="0" response="0" foes="0" cont="0"/>
    </junction>

    <connection from="circ_E_N" to="exit_N" fromLane="0" toLane="0" via=":N_1_0" dir="r" state="M"/>
    <connection from="circ_E_N" to="circ_N_W" fromLane="0" toLane="0" via=":N_2_0" dir="s" state="M"/>
    <connection from="circ_N_W" to="exit_W" fromLane="0" toLane="0" via=":W_0_0" dir="r" state="M"/>
    <connection from="circ_N_W" to="circ_W_S" fromLane="0" toLane="0" via=":W_1_0" dir="s" state="M"/>
    <connection from="circ_S_E" to="exit_E" fromLane="0" toLane="0" via=":E_1_0" dir="r" state="M"/>
    <connection from="circ_S_E" to="circ_E_N" fromLane="0" toLane="0" via=":E_2_0" dir="s" state="M"/>
    <connection from="circ_W_S" to="exit_S" fromLane="0" toLane="0" via=":S_1_0" dir="r" state="M"/>
    <connection from="circ_W_S" to="circ_S_E" fromLane="0" toLane="0" via=":S_2_0" dir="s" state="M"/>
    <connection from="entry_E" to="circ_E_N" fromLane="0" toLane="0" via=":E_0_0" dir="r" state="m" visibility="9.00"/>
    <connection from="entry_N" to="circ_N_W" fromLane="0" toLane="0" via=":N_0_0" dir="r" state="m" visibility="9.00"/>
    <connection from="entry_S" to="circ_S_E" fromLane="0" toLane="0" via=":S_0_0" dir="r" state="m" visibility="9.00"/>
    <connection from="entry_W" to="circ_W_S" fromLane="0" toLane="0" via=":W_2_0" dir="r" state="m" visibility="9.00"/>
    <connection from="exit_E" to="entry_E" fromLane="0" toLane="0" via=":E_far_0_0" dir="t" state="M"/>
    <connection from="exit_N" to="entry_N" fromLane="0" toLane="0" via=":N_far_0_0" dir="t" state="M"/>
    <connection from="exit_S" to="entry_S" fromLane="0" toLane="0" via=":S_far_0_0" dir="t" state="M"/>
    <connection from="exit_W" to="entry_W" fromLane="0" toLane="0" via=":W_far_0_0" dir="t" state="M"/>

    <connection from=":E_0" to="circ_E_N" fromLane="0" toLane="0" dir="r" state="M"/>
    <connection from=":E_1" to="exit_E" fromLane="0" toLane="0" dir="r" state="M"/>
    <connection from=":E_2" to="circ_E_N" fromLane="0" toLane="0" dir="s" state="M"/>
    <connection from=":E_far_0" to="entry_E" fromLane="0" toLane="0" dir="t" state="M"/>
    <connection from=":N_0" to="circ_N_W" fromLane="0" toLane="0" dir="r" state="M"/>
    <connection from=":N_1" to="exit_N" fromLane="0" toLane="0" dir="r" state="M"/>
    <connection from=":N_2" to="circ_N_W" fromLane="0" toLane="0" dir="s" state="M"/>
    <connection from=":N_far_0" to="entry_N" fromLane="0" toLane="0" dir="t" state="M"/>
    <connection from=":S_0" to="circ_S_E" fromLane="0" toLane="0" dir="r" state="M"/>
    <connection from=":S_1" to="exit_S" fromLane="0" toLane="0" dir="r" state="M"/>
    <connection from=":S_2" to="circ_S_E" fromLane="0" toLane="0" dir="s" state="M"/>
    <connection from=":S_far_0" to="entry_S" fromLane="0" toLane="0" dir="t" state="M"/>
    <connection from=":W_0" to="exit_W" fromLane="0" toLane="0" dir="r" state="M"/>
    <connection from=":W_1" to="circ_W_S" fromLane="0" toLane="0" dir="s" state="M"/>
    <connection from=":W_2" to="circ_W_S" fromLane="0" toLane="0" dir="r" state="M"/>
    <connection from=":W_far_0" to="entry_W" fromLane="0" toLane="0" dir="t" state="M"/>

    <roundabout nodes="E N S W" edges="circ_E_N circ_N_W circ_S_E circ_W_S"/>

</net>
