<?xml version="1.0" encoding="UTF-8"?>
<nodes xmlns:xsi="http://www.w3.org/2001/XMLSchema-instance" xsi:noNamespaceSchemaLocation="http://sumo.dlr.de/xsd/nodes_file.xsd">
    <!-- Roundabout ring junction nodes (30 m radius, 60 m inscribed circle) -->
    <node id="N" x="0"    y="30"   type="priority"/>
    <node id="E" x="30"   y="0"    type="priority"/>
    <node id="S" x="0"    y="-30"  type="priority"/>
    <node id="W" x="-30"  y="0"    type="priority"/>

    <!-- Far boundary nodes: entry/exit arms of approx 170 m each -->
    <node id="N_far" x="0"    y="200"   type="priority"/>
    <node id="E_far" x="200"  y="0"     type="priority"/>
    <node id="S_far" x="0"    y="-200"  type="priority"/>
    <node id="W_far" x="-200" y="0"     type="priority"/>
</nodes>
